powerfactory/powerfactory-converter/src/test/resources/hvdc-2-VSC-ACDC-links.dgs
$$General;ID(a:40);Descr(a:40);Val(a:40)
1;Version;5.0

$$ElmLne;ID(a:40);loc_name(a:40);fold_id(p);typ_id(p);dline(r)
3;lne_1_3_1;9;45;52
4;DC-Line_pos;9;44;50
5;DC-Line_neg;9;44;50

$$TypLne;ID(a:40);loc_name(a:40);fold_id(p);uline(r);sline(r);rline(r);xline(r);systp(i)
44;DC Cable Type 320kV;9;320;17.49546;0.1;0.309789;1
45;AC Cable Type 320kV;9;320;17.49546;0.1;0.309789;0

$$ElmVsc;ID(a:40);loc_name(a:40);fold_id(p);Unom(r);usetp(r);psetp(r);qsetp(r);Pnold(r);P_max(r)
6;HVDC Converter 1;9;300;1.0;600;0;10000;900
7;HVDC Converter 2;9;300;1.009999990463257;0;100;10000;900

$$ElmNet;ID(a:40);loc_name(a:40);for_name(a:50);fold_id(p);frnom(r);pDiagram(p)
9;1 aux_1;;;60;

$$ElmTerm;ID(a:40);loc_name(a:40);fold_id(p);systype(i);iUsage(i);uknom(r);unknom(r);iminus(i)
11;Bus 3;9;0;0;165;95.26279;0
12;2 Bus 2;9;0;0;165;95.26279;0
13;3 Bus 2-Load;9;0;0;165;95.26279;0
14;4 HVDC Link_T_DC_pos1;9;1;0;320;320.0;0
15;5 HVDC Link_T_DC_pos2;9;1;0;320;320.0;0
16;6 HVDC Link_T_DC_neg1;9;1;0;320;320.0;1
17;7 HVDC Link_T_DC_neg2;9;1;0;320;320.0;1

$$StaCubic;ID(a:40);loc_name(a:40);fold_id(p);obj_bus(i);obj_id(p);it2p1(i);it2p2(i);it2p3(i)
22;HVDC Converter 1 AC Node;12;0;6;0;1;2
25;HVDC Converter 2 AC Node;13;0;7;0;1;2
26;HVDC Converter 1 DC Node-1;14;1;6;0;1;2
27;HVDC Converter 1 DC Node-2;16;2;6;0;1;2
28;HVDC Converter 2 DC Node-1;15;1;7;0;1;2
29;HVDC Converter 2 DC Node-2;17;2;7;0;1;2
30;HVDC line 1 Node 1;14;0;4;0;1;2
31;HVDC line 1 Node 2;15;1;4;0;1;2
32;HVDC line 2 Node 1;16;0;5;0;1;2
33;HVDC line 2 Node 2;17;1;5;0;1;2
34;AC line load Node 1;13;0;3;0;1;2
35;AC line load Node 1;11;1;3;0;1;2

